2118
  -OEChem-01231412273D

 35 38  0     0  0  0  0  0  0999 V2000
   -1.0909    4.4620    0.7689 Cl  0  0  0  0  0  0  0  0  0  0  0  0
    2.1620   -0.4252   -0.0813 N   0  0  0  0  0  0  0  0  0  0  0  0
   -0.2989   -1.7860    1.1063 N   0  0  0  0  0  0  0  0  0  0  0  0
    3.0015   -2.4389    0.2274 N   0  0  0  0  0  0  0  0  0  0  0  0
    3.7929   -1.7788   -0.6808 N   0  0  0  0  0  0  0  0  0  0  0  0
    1.3321    0.7097    0.0534 C   0  0  0  0  0  0  0  0  0  0  0  0
   -0.0050    0.6054    0.4847 C   0  0  0  0  0  0  0  0  0  0  0  0
    2.0459   -1.6148    0.6017 C   0  0  0  0  0  0  0  0  0  0  0  0
   -0.7501   -0.6943    0.5880 C   0  0  0  0  0  0  0  0  0  0  0  0
    1.0394   -1.8310    1.6634 C   0  0  0  0  0  0  0  0  0  0  0  0
    3.2978   -0.5720   -0.8347 C   0  0  0  0  0  0  0  0  0  0  0  0
    1.8786    1.9745   -0.2185 C   0  0  0  0  0  0  0  0  0  0  0  0
   -0.7379    1.7819    0.7206 C   0  0  0  0  0  0  0  0  0  0  0  0
   -2.1293   -0.7614    0.0193 C   0  0  0  0  0  0  0  0  0  0  0  0
    1.1264    3.1295   -0.0026 C   0  0  0  0  0  0  0  0  0  0  0  0
   -0.1733    3.0345    0.4816 C   0  0  0  0  0  0  0  0  0  0  0  0
    3.8208    0.3867   -1.8304 C   0  0  0  0  0  0  0  0  0  0  0  0
   -2.4604    0.0363   -1.0675 C   0  0  0  0  0  0  0  0  0  0  0  0
   -3.0611   -1.6211    0.5848 C   0  0  0  0  0  0  0  0  0  0  0  0
   -3.7485   -0.0266   -1.5989 C   0  0  0  0  0  0  0  0  0  0  0  0
   -4.3492   -1.6840    0.0532 C   0  0  0  0  0  0  0  0  0  0  0  0
   -4.6928   -0.8867   -1.0387 C   0  0  0  0  0  0  0  0  0  0  0  0
    1.1935   -2.8198    2.1099 H   0  0  0  0  0  0  0  0  0  0  0  0
    1.1568   -1.1071    2.4789 H   0  0  0  0  0  0  0  0  0  0  0  0
    2.9127    2.1417   -0.4831 H   0  0  0  0  0  0  0  0  0  0  0  0
   -1.7587    1.7302    1.0955 H   0  0  0  0  0  0  0  0  0  0  0  0
    1.5814    4.0998   -0.1860 H   0  0  0  0  0  0  0  0  0  0  0  0
    4.4975    1.1120   -1.3699 H   0  0  0  0  0  0  0  0  0  0  0  0
    4.4159   -0.1548   -2.5759 H   0  0  0  0  0  0  0  0  0  0  0  0
    3.0300    0.8931   -2.3907 H   0  0  0  0  0  0  0  0  0  0  0  0
   -1.7419    0.6853   -1.5589 H   0  0  0  0  0  0  0  0  0  0  0  0
   -2.8202   -2.2444    1.4413 H   0  0  0  0  0  0  0  0  0  0  0  0
   -4.0137    0.5867   -2.4552 H   0  0  0  0  0  0  0  0  0  0  0  0
   -5.0853   -2.3523    0.4903 H   0  0  0  0  0  0  0  0  0  0  0  0
   -5.6952   -0.9370   -1.4537 H   0  0  0  0  0  0  0  0  0  0  0  0
  1 16  1  0  0  0  0
  2  6  1  0  0  0  0
  2  8  1  0  0  0  0
  2 11  1  0  0  0  0
  3  9  2  0  0  0  0
  3 10  1  0  0  0  0
  4  5  1  0  0  0  0
  4  8  2  0  0  0  0
  5 11  2  0  0  0  0
  6  7  2  0  0  0  0
  6 12  1  0  0  0  0
  7  9  1  0  0  0  0
  7 13  1  0  0  0  0
  8 10  1  0  0  0  0
  9 14  1  0  0  0  0
 10 23  1  0  0  0  0
 10 24  1  0  0  0  0
 11 17  1  0  0  0  0
 12 15  2  0  0  0  0
 12 25  1  0  0  0  0
 13 16  2  0  0  0  0
 13 26  1  0  0  0  0
 14 18  2  0  0  0  0
 14 19  1  0  0  0  0
 15 16  1  0  0  0  0
 15 27  1  0  0  0  0
 17 28  1  0  0  0  0
 17 29  1  0  0  0  0
 17 30  1  0  0  0  0
 18 20  1  0  0  0  0
 18 31  1  0  0  0  0
 19 21  2  0  0  0  0
 19 32  1  0  0  0  0
 20 22  2  0  0  0  0
 20 33  1  0  0  0  0
 21 22  1  0  0  0  0
 21 34  1  0  0  0  0
 22 35  1  0  0  0  0
M  END
> <PUBCHEM_COMPOUND_CID>
2118

> <PUBCHEM_CONFORMER_RMSD>
0.6

> <PUBCHEM_CONFORMER_DIVERSEORDER>
1

> <PUBCHEM_MMFF94_PARTIAL_CHARGES>
30
1 -0.18
10 0.43
11 0.01
12 -0.15
13 -0.15
14 0.09
15 -0.15
16 0.18
17 0.18
18 -0.15
19 -0.15
2 0.33
20 -0.15
21 -0.15
22 -0.15
25 0.15
26 0.15
27 0.15
3 -0.7
31 0.15
32 0.15
33 0.15
34 0.15
35 0.15
4 -0.34
5 -0.34
6 -0.02
7 0.09
8 0.01
9 0.28

> <PUBCHEM_EFFECTIVE_ROTOR_COUNT>
1.2

> <PUBCHEM_PHARMACOPHORE_FEATURES>
7
1 3 acceptor
3 2 4 8 cation
3 2 5 11 cation
5 2 4 5 8 11 rings
6 14 18 19 20 21 22 rings
6 6 7 12 13 15 16 rings
7 2 3 6 7 8 9 10 rings

> <PUBCHEM_HEAVY_ATOM_COUNT>
22

> <PUBCHEM_ATOM_DEF_STEREO_COUNT>
0

> <PUBCHEM_ATOM_UDEF_STEREO_COUNT>
0

> <PUBCHEM_BOND_DEF_STEREO_COUNT>
0

> <PUBCHEM_BOND_UDEF_STEREO_COUNT>
0

> <PUBCHEM_ISOTOPIC_ATOM_COUNT>
0

> <PUBCHEM_COMPONENT_COUNT>
1

> <PUBCHEM_CACTVS_TAUTO_COUNT>
1

> <PUBCHEM_CONFORMER_ID>
0000084600000001

> <PUBCHEM_MMFF94_ENERGY>
82.8601

> <PUBCHEM_FEATURE_SELFOVERLAP>
38.094

> <PUBCHEM_SHAPE_FINGERPRINT>
10165383 225 16966076552951513977
104564 63 18197213642392066977
10906281 52 18193849356081933760
1100329 8 18195806271983556849
116883 192 18199468753551613165
12035759 4 18045778983660904697
12293681 160 18261685864913967160
12553582 1 18339935847803702178
12623949 98 17690873432750528859
12707595 3 18410566310372350119
12730499 353 17975976789347405875
12788726 201 18124874564945989865
13134695 92 18342448287923984205
13140716 1 18340764845369725193
13911987 19 17974873936235282036
14790565 3 17691973661326483641
14866123 147 17691965960507436163
15210252 30 17748826327853561325
15230672 131 17255117273964859780
16752209 62 18125147243681640783
16945 1 18338245946050743810
1813 80 17917439726065158527
18186145 218 18334857277015403259
20645477 70 18268982262788720847
21524375 3 17398657395096848153
22112679 90 18129957692958041729
221357 26 18408597076947289783
221490 88 18191871334536801587
22620623 9 17843134601574392484
23114952 82 18116431625388201637
23402539 116 18341335479241210578
23419403 2 17175688240128809746
23557571 272 18055051200026162442
23558518 356 18191037698780210402
23559900 14 18335423525888842740
238 59 17691095542482364087
25 1 18049156971403048585
25147074 1 17899140408569355114
266924 87 18339084886313809836
2748010 2 17615424974752598488
2838139 119 15792302630151300694
3298306 158 17761499488270657844
3323516 105 18261956374665175647
3524813 1 17968933214226685543
394222 165 12965418699401346106
5262128 65 18271537454174651446
6438718 38 17843962533909618469
7164475 11 18267305322624744694
7364860 26 18267296723941819561
7471813 234 18338222783366229302
81228 2 18051959338763376665
9981440 41 14423519638053846548

> <PUBCHEM_SHAPE_MULTIPOLES>
434.7
7.04
3.99
1.34
4.25
5.21
0.27
-4.98
3.81
-1
-1.52
-0.07
-0.27
-0.2

> <PUBCHEM_SHAPE_SELFOVERLAP>
962.793

> <PUBCHEM_SHAPE_VOLUME>
233.4

> <PUBCHEM_COORDINATE_TYPE>
2
5
10

$$$$
